Version 4.1
SHEET 1 1684 768
WIRE 1264 -16 1152 -16
WIRE 1440 96 1200 96
WIRE 304 112 240 112
WIRE 480 112 304 112
WIRE 1264 112 1264 -16
WIRE 240 128 240 112
WIRE 240 128 -64 128
WIRE 1200 128 1200 96
WIRE 1232 128 1200 128
WIRE 480 144 416 144
WIRE 1328 144 1296 144
WIRE 1440 144 1440 96
WIRE 1440 144 1408 144
WIRE 1520 144 1440 144
WIRE 656 160 608 160
WIRE 976 160 976 112
WIRE 1072 160 976 160
WIRE 1232 160 1072 160
WIRE 656 176 656 160
WIRE 1520 208 1520 144
WIRE 1616 208 1520 208
WIRE 976 224 976 160
WIRE 1072 240 1072 160
WIRE 416 272 416 144
WIRE 656 272 656 256
WIRE 656 272 416 272
WIRE 896 272 896 160
WIRE 896 272 656 272
WIRE 48 352 48 336
WIRE 144 352 48 352
WIRE 48 368 48 352
FLAG -64 208 0
FLAG 144 352 0
FLAG 48 256 vcc
FLAG 48 448 vee
FLAG 608 96 vcc
FLAG 608 128 vee
FLAG 304 192 0
FLAG 976 304 0
FLAG 560 448 0
FLAG 560 368 vref
FLAG 976 32 vref
FLAG 1072 304 0
FLAG 1264 176 0
FLAG 1152 64 0
FLAG 1520 272 0
FLAG 1616 288 0
SYMBOL voltage -64 112 R0
WINDOW 123 24 124 Left 2
WINDOW 39 0 0 Left 0
SYMATTR Value2 AC 1
SYMATTR InstName V1
SYMATTR Value SINE(0 10 100)
SYMBOL res 992 144 R90
WINDOW 0 0 56 VBottom 2
WINDOW 3 32 56 VTop 2
SYMATTR InstName R1
SYMATTR Value 200k
SYMBOL TL07XH_TL08XH 544 128 R0
SYMATTR InstName U1
SYMBOL voltage 48 240 R0
WINDOW 123 0 0 Left 0
WINDOW 39 0 0 Left 0
SYMATTR InstName V2
SYMATTR Value 12
SYMBOL voltage 48 352 R0
WINDOW 123 0 0 Left 0
WINDOW 39 0 0 Left 0
SYMATTR InstName V3
SYMATTR Value 12
SYMBOL res 288 96 R0
SYMATTR InstName R2
SYMATTR Value 100k
SYMBOL res 960 16 R0
SYMATTR InstName R3
SYMATTR Value 47k
SYMBOL res 960 208 R0
SYMATTR InstName R4
SYMATTR Value 62k
SYMBOL voltage 560 352 R0
WINDOW 123 0 0 Left 0
WINDOW 39 0 0 Left 0
SYMATTR InstName V4
SYMATTR Value 2.5
SYMBOL cap 1056 240 R0
SYMATTR InstName C1
SYMATTR Value 49n
SYMBOL OpAmps\\AD8541 1264 80 R0
WINDOW 3 -43 128 Left 2
SYMATTR InstName U2
SYMBOL voltage 1152 -32 R0
WINDOW 123 0 0 Left 0
WINDOW 39 0 0 Left 0
SYMATTR InstName V5
SYMATTR Value 3.3
SYMBOL res 1424 128 R90
WINDOW 0 0 56 VBottom 2
WINDOW 3 32 56 VTop 2
SYMATTR InstName R5
SYMATTR Value 100
SYMBOL cap 1504 208 R0
SYMATTR InstName C2
SYMATTR Value 100p
SYMBOL res 1600 192 R0
SYMATTR InstName R6
SYMATTR Value 10k
SYMBOL res 640 160 R0
SYMATTR InstName R7
SYMATTR Value 100
TEXT 512 656 Left 2 ;.ac dec 30 1 1e6
TEXT 456 752 Left 2 !.tran 0 130m 100m
