Version 4.1
SHEET 1 1360 680
WIRE 1296 -144 1184 -144
WIRE 1184 -128 1184 -144
WIRE 1296 -112 1296 -144
WIRE 480 -48 368 -48
WIRE 368 -16 368 -48
WIRE 480 -16 480 -48
WIRE 1184 -16 1184 -48
WIRE 1296 -16 1296 -32
WIRE 1120 32 1072 32
WIRE 96 64 0 64
WIRE 368 64 368 48
WIRE 368 64 176 64
WIRE 912 64 816 64
WIRE 1072 64 1072 32
WIRE 1072 64 992 64
WIRE 480 80 480 64
WIRE 0 112 0 64
WIRE 816 112 816 64
WIRE 1072 112 1072 64
WIRE 1184 112 1184 80
WIRE 1184 112 1136 112
WIRE 368 208 368 128
WIRE 1184 208 1184 112
WIRE 0 224 0 192
WIRE 816 224 816 192
FLAG 368 208 0
FLAG 0 224 0
FLAG 480 80 0
FLAG 1184 208 0
FLAG 816 224 0
FLAG 1296 -16 0
SYMBOL voltage 0 96 R0
WINDOW 123 0 0 Left 0
WINDOW 39 0 0 Left 0
SYMATTR InstName V1
SYMATTR Value SINE(0 10 1k)
SYMBOL diode 384 48 R180
WINDOW 0 24 64 Left 2
WINDOW 3 24 0 Left 2
SYMATTR InstName D1
SYMATTR Value DI_BAT54S
SYMBOL res 192 48 R90
WINDOW 0 0 56 VBottom 2
WINDOW 3 32 56 VTop 2
SYMATTR InstName R1
SYMATTR Value 100k
SYMBOL diode 384 128 R180
WINDOW 0 24 64 Left 2
WINDOW 3 24 0 Left 2
SYMATTR InstName D2
SYMATTR Value DI_BAT54S
SYMBOL voltage 480 -32 R0
WINDOW 123 0 0 Left 0
WINDOW 39 0 0 Left 0
SYMATTR InstName V2
SYMATTR Value 3.3
SYMBOL npn 1120 -16 R0
SYMATTR InstName Q1
SYMATTR Value 2N3904
SYMBOL voltage 816 96 R0
WINDOW 123 0 0 Left 0
WINDOW 39 0 0 Left 0
SYMATTR InstName V3
SYMATTR Value SINE(0 10 1k)
SYMBOL res 1008 48 R90
WINDOW 0 0 56 VBottom 2
WINDOW 3 32 56 VTop 2
SYMATTR InstName R2
SYMATTR Value 100k
SYMBOL diode 1136 96 R90
WINDOW 0 0 32 VBottom 2
WINDOW 3 32 32 VTop 2
SYMATTR InstName D4
SYMATTR Value DI_BAT54S
SYMBOL voltage 1296 -128 R0
WINDOW 123 0 0 Left 0
WINDOW 39 0 0 Left 0
SYMATTR InstName V4
SYMATTR Value 3.3
SYMBOL res 1200 -32 R180
WINDOW 0 36 76 Left 2
WINDOW 3 36 40 Left 2
SYMATTR InstName R3
SYMATTR Value 10k
TEXT -64 408 Left 2 !.include BAT54S.lib
TEXT 280 416 Left 2 !.tran 3m
